Acetamide
  MM2 example - CH3CONH2 (amide bond)
  
  9  8  0  0  0  0  0  0  0  0  1 V2000
   -1.2990    0.0000    0.0000 C   0  0  0  0  0  0  0  0  0  0  0  0
    0.0000    0.7530    0.0000 C   0  0  0  0  0  0  0  0  0  0  0  0
    0.0000    2.0000    0.0000 O   0  0  0  0  0  0  0  0  0  0  0  0
    1.2210    0.0000    0.0000 N   0  0  0  0  0  0  0  0  0  0  0  0
   -1.3120    0.6400    0.8800 H   0  0  0  0  0  0  0  0  0  0  0  0
   -1.3120    0.6400   -0.8800 H   0  0  0  0  0  0  0  0  0  0  0  0
   -2.1950   -0.6100    0.0000 H   0  0  0  0  0  0  0  0  0  0  0  0
    1.2210   -0.6200    0.8000 H   0  0  0  0  0  0  0  0  0  0  0  0
    1.2210   -0.6200   -0.8000 H   0  0  0  0  0  0  0  0  0  0  0  0
  1  2  1  0
  2  3  2  0
  2  4  1  0
  1  5  1  0
  1  6  1  0
  1  7  1  0
  4  8  1  0
  4  9  1  0
M  END
