
 OpenBabel03252610283D

  9  8  0  0  0  0  0  0  0  0999 V2000
   -1.2750    0.2958    0.0000 C   0  0  0  0  0  0  0  0  0  0  0  0
    0.1206    0.8576   -0.0000 C   0  0  0  0  0  0  0  0  0  0  0  0
    0.3513    2.0596    0.0000 O   0  0  0  0  0  0  0  0  0  0  0  0
    1.1171   -0.0865   -0.0000 N   0  0  0  0  0  0  0  0  0  0  0  0
   -1.7997    0.6405    0.8950 H   0  0  0  0  0  0  0  0  0  0  0  0
   -1.7997    0.6405   -0.8950 H   0  0  0  0  0  0  0  0  0  0  0  0
   -1.2657   -0.7981   -0.0000 H   0  0  0  0  0  0  0  0  0  0  0  0
    1.0480   -0.7132    0.7958 H   0  0  0  0  0  0  0  0  0  0  0  0
    1.0480   -0.7132   -0.7958 H   0  0  0  0  0  0  0  0  0  0  0  0
  1  2  1  0  0  0  0
  1  5  1  0  0  0  0
  1  6  1  0  0  0  0
  1  7  1  0  0  0  0
  2  3  2  0  0  0  0
  2  4  1  0  0  0  0
  4  8  1  0  0  0  0
  4  9  1  0  0  0  0
M  END
