
 OpenBabel03252610293D

 14 13  0  0  0  0  0  0  0  0999 V2000
    1.7964    0.1492    0.1243 C   0  0  0  0  0  0  0  0  0  0  0  0
    0.4754    0.1218   -0.6284 C   0  0  0  0  0  0  0  0  0  0  0  0
   -0.7517    0.0993    0.2837 C   0  0  0  0  0  0  0  0  0  0  0  0
   -0.7924   -1.0944    1.2248 C   0  0  0  0  0  0  0  0  0  0  0  0
    1.9734   -0.7935    0.6508 H   0  0  0  0  0  0  0  0  0  0  0  0
    2.6250    0.2967   -0.5757 H   0  0  0  0  0  0  0  0  0  0  0  0
    1.8185    0.9644    0.8544 H   0  0  0  0  0  0  0  0  0  0  0  0
    0.4157    1.0102   -1.2683 H   0  0  0  0  0  0  0  0  0  0  0  0
    0.4576   -0.7490   -1.2945 H   0  0  0  0  0  0  0  0  0  0  0  0
   -0.7931    1.0240    0.8716 H   0  0  0  0  0  0  0  0  0  0  0  0
   -1.6504    0.0839   -0.3443 H   0  0  0  0  0  0  0  0  0  0  0  0
   -1.7506   -1.1241    1.7533 H   0  0  0  0  0  0  0  0  0  0  0  0
   -0.6770   -2.0344    0.6762 H   0  0  0  0  0  0  0  0  0  0  0  0
   -0.0018   -1.0330    1.9789 H   0  0  0  0  0  0  0  0  0  0  0  0
  1  2  1  0  0  0  0
  1  5  1  0  0  0  0
  1  6  1  0  0  0  0
  1  7  1  0  0  0  0
  2  3  1  0  0  0  0
  2  8  1  0  0  0  0
  2  9  1  0  0  0  0
  3  4  1  0  0  0  0
  3 10  1  0  0  0  0
  3 11  1  0  0  0  0
  4 12  1  0  0  0  0
  4 13  1  0  0  0  0
  4 14  1  0  0  0  0
M  END
