butane_anti
  MM2-benchmark
  Ref MM2 steric energy: 2.174 kcal/mol (UPenn MM2 web-calculator; anti = global minimum)

 14 13  0  0  0  0  0  0  0  0  0 V2000
     1.8900     0.0000     0.3700 C   0  0  0  0  0  0  0  0  0  0  0  0
     0.6300     0.0000    -0.4600 C   0  0  0  0  0  0  0  0  0  0  0  0
    -0.6300     0.0000     0.4600 C   0  0  0  0  0  0  0  0  0  0  0  0
    -1.8900     0.0000    -0.3700 C   0  0  0  0  0  0  0  0  0  0  0  0
     1.5802    -1.0493     0.1659 H   0  0  0  0  0  0  0  0  0  0  0  0
     2.0801     0.5247    -0.5930 H   0  0  0  0  0  0  0  0  0  0  0  0
     1.0803     0.5247     0.9248 H   0  0  0  0  0  0  0  0  0  0  0  0
     0.6145     0.9089    -1.1022 H   0  0  0  0  0  0  0  0  0  0  0  0
     0.6145    -0.9089    -1.1022 H   0  0  0  0  0  0  0  0  0  0  0  0
    -0.6145    -0.9089     1.1022 H   0  0  0  0  0  0  0  0  0  0  0  0
    -0.6145     0.9089     1.1022 H   0  0  0  0  0  0  0  0  0  0  0  0
    -1.5802     1.0493    -0.1659 H   0  0  0  0  0  0  0  0  0  0  0  0
    -1.0803    -0.5247    -0.9248 H   0  0  0  0  0  0  0  0  0  0  0  0
    -2.0801    -0.5247     0.5930 H   0  0  0  0  0  0  0  0  0  0  0  0
   1   2  1  0
   2   3  1  0
   3   4  1  0
   1   5  1  0
   1   6  1  0
   1   7  1  0
   2   8  1  0
   2   9  1  0
   3  10  1  0
   3  11  1  0
   4  12  1  0
   4  13  1  0
   4  14  1  0
M  END
$$$$
