butane_gauche
  MM2-benchmark
  Ref MM2 steric energy: 3.410 kcal/mol (UPenn MM2; gauche = anti + 1.236 kcal/mol penalty)

 14 13  0  0  0  0  0  0  0  0  0 V2000
     1.8900     0.0000     0.3700 C   0  0  0  0  0  0  0  0  0  0  0  0
     0.6300     0.0000    -0.4600 C   0  0  0  0  0  0  0  0  0  0  0  0
    -0.6300     0.0000     0.4600 C   0  0  0  0  0  0  0  0  0  0  0  0
    -0.6398    -1.2240     1.3422 C   0  0  0  0  0  0  0  0  0  0  0  0
     1.5802    -1.0493     0.1659 H   0  0  0  0  0  0  0  0  0  0  0  0
     2.0801     0.5247    -0.5930 H   0  0  0  0  0  0  0  0  0  0  0  0
     1.0803     0.5247     0.9248 H   0  0  0  0  0  0  0  0  0  0  0  0
     0.6145     0.9089    -1.1022 H   0  0  0  0  0  0  0  0  0  0  0  0
     0.6145    -0.9089    -1.1022 H   0  0  0  0  0  0  0  0  0  0  0  0
    -1.0814     0.4514     1.3717 H   0  0  0  0  0  0  0  0  0  0  0  0
    -1.0814     0.4627    -0.4461 H   0  0  0  0  0  0  0  0  0  0  0  0
    -0.6374    -1.5366     0.2740 H   0  0  0  0  0  0  0  0  0  0  0  0
     0.2713    -0.6211     1.5544 H   0  0  0  0  0  0  0  0  0  0  0  0
    -1.5462    -0.6114     1.5474 H   0  0  0  0  0  0  0  0  0  0  0  0
   1   2  1  0
   2   3  1  0
   3   4  1  0
   1   5  1  0
   1   6  1  0
   1   7  1  0
   2   8  1  0
   2   9  1  0
   3  10  1  0
   3  11  1  0
   4  12  1  0
   4  13  1  0
   4  14  1  0
M  END
$$$$
