
 OpenBabel03252610293D

 14 13  0  0  0  0  0  0  0  0999 V2000
    1.9202    0.0393    0.2379 C   0  0  0  0  0  0  0  0  0  0  0  0
    0.5822    0.1194   -0.4795 C   0  0  0  0  0  0  0  0  0  0  0  0
   -0.5822   -0.1194    0.4795 C   0  0  0  0  0  0  0  0  0  0  0  0
   -1.9202   -0.0393   -0.2379 C   0  0  0  0  0  0  0  0  0  0  0  0
    2.0653   -0.9478    0.6885 H   0  0  0  0  0  0  0  0  0  0  0  0
    2.7392    0.2147   -0.4667 H   0  0  0  0  0  0  0  0  0  0  0  0
    1.9864    0.7920    1.0300 H   0  0  0  0  0  0  0  0  0  0  0  0
    0.4833    1.1059   -0.9473 H   0  0  0  0  0  0  0  0  0  0  0  0
    0.5606   -0.6246   -1.2844 H   0  0  0  0  0  0  0  0  0  0  0  0
   -0.4833   -1.1059    0.9473 H   0  0  0  0  0  0  0  0  0  0  0  0
   -0.5606    0.6246    1.2844 H   0  0  0  0  0  0  0  0  0  0  0  0
   -2.0653    0.9478   -0.6885 H   0  0  0  0  0  0  0  0  0  0  0  0
   -1.9864   -0.7920   -1.0300 H   0  0  0  0  0  0  0  0  0  0  0  0
   -2.7392   -0.2147    0.4667 H   0  0  0  0  0  0  0  0  0  0  0  0
  1  2  1  0  0  0  0
  1  5  1  0  0  0  0
  1  6  1  0  0  0  0
  1  7  1  0  0  0  0
  2  3  1  0  0  0  0
  2  8  1  0  0  0  0
  2  9  1  0  0  0  0
  3  4  1  0  0  0  0
  3 10  1  0  0  0  0
  3 11  1  0  0  0  0
  4 12  1  0  0  0  0
  4 13  1  0  0  0  0
  4 14  1  0  0  0  0
M  END
