
 OpenBabel03252610303D

 28 29  0  0  0  0  0  0  0  0999 V2000
    1.1204    0.3242    0.4754 C   0  0  0  0  0  0  0  0  0  0  0  0
    0.6709    0.7655   -0.9141 C   0  0  0  0  0  0  0  0  0  0  0  0
   -0.7908    0.4189   -1.1893 C   0  0  0  0  0  0  0  0  0  0  0  0
   -1.0678   -1.0745   -0.9481 C   0  0  1  0  0  0  0  0  0  0  0  0
   -0.6656   -1.5072    0.4704 C   0  0  1  0  0  0  0  0  0  0  0  0
    0.8036   -1.1470    0.7466 C   0  0  0  0  0  0  0  0  0  0  0  0
   -2.5185   -1.4640   -1.2664 C   0  0  0  0  0  0  0  0  0  0  0  0
   -3.4807   -1.4407   -0.0782 C   0  0  0  0  0  0  0  0  0  0  0  0
   -3.0050   -0.5903    1.0863 C   0  0  0  0  0  0  0  0  0  0  0  0
   -1.6031   -0.9617    1.5664 C   0  0  0  0  0  0  0  0  0  0  0  0
    0.6387    0.9563    1.2302 H   0  0  0  0  0  0  0  0  0  0  0  0
    2.1994    0.4884    0.5772 H   0  0  0  0  0  0  0  0  0  0  0  0
    1.3040    0.2840   -1.6697 H   0  0  0  0  0  0  0  0  0  0  0  0
    0.8174    1.8463   -1.0211 H   0  0  0  0  0  0  0  0  0  0  0  0
   -1.4298    1.0483   -0.5621 H   0  0  0  0  0  0  0  0  0  0  0  0
   -1.0277    0.6769   -2.2285 H   0  0  0  0  0  0  0  0  0  0  0  0
   -0.4325   -1.6219   -1.6604 H   0  0  0  0  0  0  0  0  0  0  0  0
   -0.7401   -2.6036    0.5097 H   0  0  0  0  0  0  0  0  0  0  0  0
    1.4437   -1.7647    0.1026 H   0  0  0  0  0  0  0  0  0  0  0  0
    1.0689   -1.3982    1.7801 H   0  0  0  0  0  0  0  0  0  0  0  0
   -2.5223   -2.4871   -1.6671 H   0  0  0  0  0  0  0  0  0  0  0  0
   -2.9088   -0.8359   -2.0762 H   0  0  0  0  0  0  0  0  0  0  0  0
   -3.6361   -2.4676    0.2757 H   0  0  0  0  0  0  0  0  0  0  0  0
   -4.4617   -1.0857   -0.4166 H   0  0  0  0  0  0  0  0  0  0  0  0
   -3.0269    0.4660    0.7956 H   0  0  0  0  0  0  0  0  0  0  0  0
   -3.7091   -0.6796    1.9223 H   0  0  0  0  0  0  0  0  0  0  0  0
   -1.1732   -0.0896    2.0711 H   0  0  0  0  0  0  0  0  0  0  0  0
   -1.6888   -1.7304    2.3462 H   0  0  0  0  0  0  0  0  0  0  0  0
  1  2  1  0  0  0  0
  1 11  1  0  0  0  0
  1 12  1  0  0  0  0
  2  3  1  0  0  0  0
  2 13  1  0  0  0  0
  2 14  1  0  0  0  0
  3  4  1  0  0  0  0
  3 15  1  0  0  0  0
  3 16  1  0  0  0  0
  4  5  1  1  0  0  0
  4  7  1  0  0  0  0
  4 17  1  0  0  0  0
  5  6  1  0  0  0  0
  5 18  1  1  0  0  0
  6  1  1  0  0  0  0
  6 19  1  0  0  0  0
  6 20  1  0  0  0  0
  7  8  1  0  0  0  0
  7 21  1  0  0  0  0
  7 22  1  0  0  0  0
  8  9  1  0  0  0  0
  8 23  1  0  0  0  0
  8 24  1  0  0  0  0
  9 10  1  0  0  0  0
  9 25  1  0  0  0  0
  9 26  1  0  0  0  0
 10  5  1  0  0  0  0
 10 27  1  0  0  0  0
 10 28  1  0  0  0  0
M  END
