cyclohexanone
  Claude    3D
cyclohexanone (chair-like, sp2 C1). Ref MM2: 4.02 kcal/mol (Allinger 1973)
 17 17  0  0  0  0  0  0  0  0  0 V2000
    1.4425    0.0000    0.0000 C   0  0  0  0  0  0  0  0  0  0  0  0
    0.7213    1.2492   -0.2520 C   0  0  0  0  0  0  0  0  0  0  0  0
   -0.7212    1.2492    0.2520 C   0  0  0  0  0  0  0  0  0  0  0  0
   -1.4425    0.0000   -0.2520 C   0  0  0  0  0  0  0  0  0  0  0  0
   -0.7213   -1.2492    0.2520 C   0  0  0  0  0  0  0  0  0  0  0  0
    0.7213   -1.2492   -0.2520 C   0  0  0  0  0  0  0  0  0  0  0  0
    1.0441    0.0000    1.1404 O   0  0  0  0  0  0  0  0  0  0  0  0
    1.7912    1.3278   -0.5484 H   0  0  0  0  0  0  0  0  0  0  0  0
    0.1845    2.1781   -0.5484 H   0  0  0  0  0  0  0  0  0  0  0  0
   -0.1974    2.1597    0.6199 H   0  0  0  0  0  0  0  0  0  0  0  0
   -1.7717    1.2508    0.6199 H   0  0  0  0  0  0  0  0  0  0  0  0
   -1.9690    0.9089   -0.6199 H   0  0  0  0  0  0  0  0  0  0  0  0
   -1.9690   -0.9089   -0.6199 H   0  0  0  0  0  0  0  0  0  0  0  0
   -1.7717   -1.2508    0.6199 H   0  0  0  0  0  0  0  0  0  0  0  0
   -0.1974   -2.1597    0.6199 H   0  0  0  0  0  0  0  0  0  0  0  0
    0.1845   -2.1781   -0.5484 H   0  0  0  0  0  0  0  0  0  0  0  0
    1.7912   -1.3278   -0.5484 H   0  0  0  0  0  0  0  0  0  0  0  0
  1  2  1  0  0  0  0
  2  3  1  0  0  0  0
  3  4  1  0  0  0  0
  4  5  1  0  0  0  0
  5  6  1  0  0  0  0
  6  1  1  0  0  0  0
  1  7  2  0  0  0  0
  2  8  1  0  0  0  0
  2  9  1  0  0  0  0
  3 10  1  0  0  0  0
  3 11  1  0  0  0  0
  4 12  1  0  0  0  0
  4 13  1  0  0  0  0
  5 14  1  0  0  0  0
  5 15  1  0  0  0  0
  6 16  1  0  0  0  0
  6 17  1  0  0  0  0
M  END
