
 OpenBabel03252610333D

 18 18  0  0  0  0  0  0  0  0999 V2000
    1.4648   -0.0607    0.1653 C   0  0  0  0  0  0  0  0  0  0  0  0
    0.7681    1.2384   -0.2305 C   0  0  0  0  0  0  0  0  0  0  0  0
   -0.6692    1.2845    0.2808 C   0  0  0  0  0  0  0  0  0  0  0  0
   -1.4648    0.0607   -0.1653 C   0  0  0  0  0  0  0  0  0  0  0  0
   -0.7681   -1.2384    0.2305 C   0  0  0  0  0  0  0  0  0  0  0  0
    0.6693   -1.2845   -0.2808 C   0  0  0  0  0  0  0  0  0  0  0  0
    1.5943   -0.0875    1.2543 H   0  0  0  0  0  0  0  0  0  0  0  0
    2.4672   -0.0912   -0.2764 H   0  0  0  0  0  0  0  0  0  0  0  0
    1.3282    2.0929    0.1655 H   0  0  0  0  0  0  0  0  0  0  0  0
    0.7693    1.3340   -1.3233 H   0  0  0  0  0  0  0  0  0  0  0  0
   -1.1601    2.1953   -0.0801 H   0  0  0  0  0  0  0  0  0  0  0  0
   -0.6646    1.3364    1.3766 H   0  0  0  0  0  0  0  0  0  0  0  0
   -2.4672    0.0912    0.2764 H   0  0  0  0  0  0  0  0  0  0  0  0
   -1.5943    0.0875   -1.2543 H   0  0  0  0  0  0  0  0  0  0  0  0
   -1.3282   -2.0929   -0.1655 H   0  0  0  0  0  0  0  0  0  0  0  0
   -0.7693   -1.3340    1.3234 H   0  0  0  0  0  0  0  0  0  0  0  0
    0.6646   -1.3364   -1.3766 H   0  0  0  0  0  0  0  0  0  0  0  0
    1.1602   -2.1953    0.0801 H   0  0  0  0  0  0  0  0  0  0  0  0
  1  2  1  0  0  0  0
  1  7  1  0  0  0  0
  1  8  1  0  0  0  0
  2  3  1  0  0  0  0
  2  9  1  0  0  0  0
  2 10  1  0  0  0  0
  3  4  1  0  0  0  0
  3 11  1  0  0  0  0
  3 12  1  0  0  0  0
  4  5  1  0  0  0  0
  4 13  1  0  0  0  0
  4 14  1  0  0  0  0
  5  6  1  0  0  0  0
  5 15  1  0  0  0  0
  5 16  1  0  0  0  0
  6  1  1  0  0  0  0
  6 17  1  0  0  0  0
  6 18  1  0  0  0  0
M  END
