
 OpenBabel03252610323D

 17 17  0  0  0  0  0  0  0  0999 V2000
    1.3450   -0.0281    0.1032 C   0  0  0  0  0  0  0  0  0  0  0  0
    0.6536    1.2624   -0.2754 C   0  0  0  0  0  0  0  0  0  0  0  0
   -0.7747    1.2781    0.2520 C   0  0  0  0  0  0  0  0  0  0  0  0
   -1.5440    0.0240   -0.1579 C   0  0  0  0  0  0  0  0  0  0  0  0
   -0.8257   -1.2379    0.3157 C   0  0  0  0  0  0  0  0  0  0  0  0
    0.6014   -1.3068   -0.2107 C   0  0  0  0  0  0  0  0  0  0  0  0
    2.4987   -0.0408    0.5297 O   0  0  0  0  0  0  0  0  0  0  0  0
    1.2138    2.1061    0.1404 H   0  0  0  0  0  0  0  0  0  0  0  0
    0.6679    1.3473   -1.3675 H   0  0  0  0  0  0  0  0  0  0  0  0
   -0.7584    1.3471    1.3471 H   0  0  0  0  0  0  0  0  0  0  0  0
   -1.2945    2.1687   -0.1182 H   0  0  0  0  0  0  0  0  0  0  0  0
   -2.5520    0.0552    0.2710 H   0  0  0  0  0  0  0  0  0  0  0  0
   -1.6578   -0.0013   -1.2484 H   0  0  0  0  0  0  0  0  0  0  0  0
   -1.3816   -2.1243   -0.0095 H   0  0  0  0  0  0  0  0  0  0  0  0
   -0.8109   -1.2521    1.4128 H   0  0  0  0  0  0  0  0  0  0  0  0
    0.6110   -1.4470   -1.2971 H   0  0  0  0  0  0  0  0  0  0  0  0
    1.1274   -2.1506    0.2475 H   0  0  0  0  0  0  0  0  0  0  0  0
  1  2  1  0  0  0  0
  1  7  2  0  0  0  0
  2  3  1  0  0  0  0
  2  8  1  0  0  0  0
  2  9  1  0  0  0  0
  3  4  1  0  0  0  0
  3 10  1  0  0  0  0
  3 11  1  0  0  0  0
  4  5  1  0  0  0  0
  4 12  1  0  0  0  0
  4 13  1  0  0  0  0
  5  6  1  0  0  0  0
  5 14  1  0  0  0  0
  5 15  1  0  0  0  0
  6  1  1  0  0  0  0
  6 16  1  0  0  0  0
  6 17  1  0  0  0  0
M  END
