cyclohexane_chair
  Claude    3D
cyclohexane chair. Ref MM2: 6.19 kcal/mol (Allinger 1977)
 18 18  0  0  0  0  0  0  0  0  0 V2000
    1.4425    0.0000    0.2520 C   0  0  0  0  0  0  0  0  0  0  0  0
    0.7213    1.2492   -0.2520 C   0  0  0  0  0  0  0  0  0  0  0  0
   -0.7212    1.2492    0.2520 C   0  0  0  0  0  0  0  0  0  0  0  0
   -1.4425    0.0000   -0.2520 C   0  0  0  0  0  0  0  0  0  0  0  0
   -0.7213   -1.2492    0.2520 C   0  0  0  0  0  0  0  0  0  0  0  0
    0.7213   -1.2492   -0.2520 C   0  0  0  0  0  0  0  0  0  0  0  0
    1.9690   -0.9089    0.6199 H   0  0  0  0  0  0  0  0  0  0  0  0
    1.9690    0.9089    0.6199 H   0  0  0  0  0  0  0  0  0  0  0  0
    1.7717    1.2508   -0.6199 H   0  0  0  0  0  0  0  0  0  0  0  0
    0.1974    2.1597   -0.6199 H   0  0  0  0  0  0  0  0  0  0  0  0
   -0.1974    2.1597    0.6199 H   0  0  0  0  0  0  0  0  0  0  0  0
   -1.7717    1.2508    0.6199 H   0  0  0  0  0  0  0  0  0  0  0  0
   -1.9690    0.9089   -0.6199 H   0  0  0  0  0  0  0  0  0  0  0  0
   -1.9690   -0.9089   -0.6199 H   0  0  0  0  0  0  0  0  0  0  0  0
   -1.7717   -1.2508    0.6199 H   0  0  0  0  0  0  0  0  0  0  0  0
   -0.1974   -2.1597    0.6199 H   0  0  0  0  0  0  0  0  0  0  0  0
    0.1974   -2.1597   -0.6199 H   0  0  0  0  0  0  0  0  0  0  0  0
    1.7717   -1.2508   -0.6199 H   0  0  0  0  0  0  0  0  0  0  0  0
  1  2  1  0  0  0  0
  2  3  1  0  0  0  0
  3  4  1  0  0  0  0
  4  5  1  0  0  0  0
  5  6  1  0  0  0  0
  6  1  1  0  0  0  0
  1  7  1  0  0  0  0
  1  8  1  0  0  0  0
  2  9  1  0  0  0  0
  2 10  1  0  0  0  0
  3 11  1  0  0  0  0
  3 12  1  0  0  0  0
  4 13  1  0  0  0  0
  4 14  1  0  0  0  0
  5 15  1  0  0  0  0
  5 16  1  0  0  0  0
  6 17  1  0  0  0  0
  6 18  1  0  0  0  0
M  END
