cyclohexanone
  MM2-benchmark
  Ref MM2 steric energy: 4.02 kcal/mol (Allinger & Sprague 1973; less ring strain than cyclohexane due to sp2 C)

 17 17  0  0  0  0  0  0  0  0  0 V2000
     1.4425     0.0000     0.0000 C   0  0  0  0  0  0  0  0  0  0  0  0
     0.7213     1.2492    -0.2520 C   0  0  0  0  0  0  0  0  0  0  0  0
    -0.7212     1.2492     0.2520 C   0  0  0  0  0  0  0  0  0  0  0  0
    -1.4425     0.0000    -0.2520 C   0  0  0  0  0  0  0  0  0  0  0  0
    -0.7213    -1.2492     0.2520 C   0  0  0  0  0  0  0  0  0  0  0  0
     0.7213    -1.2492    -0.2520 C   0  0  0  0  0  0  0  0  0  0  0  0
     1.0441     0.0000     1.1404 O   0  0  0  0  0  0  0  0  0  0  0  0
     0.9878     2.2139     0.2350 H   0  0  0  0  0  0  0  0  0  0  0  0
     0.9878     1.2920    -1.3318 H   0  0  0  0  0  0  0  0  0  0  0  0
    -0.9845     1.1345     1.3273 H   0  0  0  0  0  0  0  0  0  0  0  0
    -0.9845     2.2760    -0.0874 H   0  0  0  0  0  0  0  0  0  0  0  0
    -1.9690     0.9089    -0.6199 H   0  0  0  0  0  0  0  0  0  0  0  0
    -1.9690    -0.9089    -0.6199 H   0  0  0  0  0  0  0  0  0  0  0  0
    -0.9845    -2.2760    -0.0874 H   0  0  0  0  0  0  0  0  0  0  0  0
    -0.9845    -1.1345     1.3273 H   0  0  0  0  0  0  0  0  0  0  0  0
     0.9878    -1.2920    -1.3318 H   0  0  0  0  0  0  0  0  0  0  0  0
     0.9878    -2.2139     0.2350 H   0  0  0  0  0  0  0  0  0  0  0  0
   1   2  1  0
   2   3  1  0
   3   4  1  0
   4   5  1  0
   5   6  1  0
   6   1  1  0
   1   7  2  0
   2   8  1  0
   2   9  1  0
   3  10  1  0
   3  11  1  0
   4  12  1  0
   4  13  1  0
   5  14  1  0
   5  15  1  0
   6  16  1  0
   6  17  1  0
M  END
$$$$
