
 OpenBabel04062611583D

  8  7  0  0  0  0  0  0  0  0999 V2000
   -4.4438    1.1410    0.0000 C   0  0  0  0  0  0  0  0  0  0  0  0
   -2.9318    1.1410    0.0000 C   0  0  0  0  0  0  0  0  0  0  0  0
   -4.8282    2.1621    0.0809 H   0  0  0  0  0  0  0  0  0  0  0  0
   -4.8282    0.5604    0.8439 H   0  0  0  0  0  0  0  0  0  0  0  0
   -4.8282    0.7005   -0.9248 H   0  0  0  0  0  0  0  0  0  0  0  0
   -2.5474    1.5815    0.9248 H   0  0  0  0  0  0  0  0  0  0  0  0
   -2.5474    1.7216   -0.8439 H   0  0  0  0  0  0  0  0  0  0  0  0
   -2.5474    0.1199   -0.0809 H   0  0  0  0  0  0  0  0  0  0  0  0
  1  2  1  0  0  0  0
  1  3  1  0  0  0  0
  1  4  1  0  0  0  0
  1  5  1  0  0  0  0
  2  6  1  0  0  0  0
  2  7  1  0  0  0  0
  2  8  1  0  0  0  0
M  END
