
 OpenBabel04212614293D

  8  7  0  0  0  0  0  0  0  0999 V2000
   -7.0567    4.3692    0.0000 C   0  0  0  0  0  0  0  0  0  0  0  0
   -5.4849    4.6123    0.0236 C   0  0  0  0  0  0  0  0  0  0  0  0
   -7.4134    3.5829    0.6320 H   0  0  0  0  0  0  0  0  0  0  0  0
   -7.4134    4.2150   -0.9970 H   0  0  0  0  0  0  0  0  0  0  0  0
   -7.4134    5.3097    0.3649 H   0  0  0  0  0  0  0  0  0  0  0  0
   -4.9828    3.7339   -0.3244 H   0  0  0  0  0  0  0  0  0  0  0  0
   -5.1725    4.8290    1.0238 H   0  0  0  0  0  0  0  0  0  0  0  0
   -5.2420    5.4376   -0.6126 H   0  0  0  0  0  0  0  0  0  0  0  0
  1  2  1  0  0  0  0
  1  3  1  0  0  0  0
  1  4  1  0  0  0  0
  1  5  1  0  0  0  0
  2  6  1  0  0  0  0
  2  7  1  0  0  0  0
  2  8  1  0  0  0  0
M  END
