Ethanol
  MM2 example - C2H5OH
  
  9  8  0  0  0  0  0  0  0  0  1 V2000
    1.1727    0.2555    0.0000 C   0  0  0  0  0  0  0  0  0  0  0  0
    0.0000   -0.6170    0.0000 C   0  0  0  0  0  0  0  0  0  0  0  0
   -1.1794    0.3346    0.0000 O   0  0  0  0  0  0  0  0  0  0  0  0
   -1.9600   -0.2172    0.0000 H   0  0  0  0  0  0  0  0  0  0  0  0
    1.1455    0.8973    0.8800 H   0  0  0  0  0  0  0  0  0  0  0  0
    1.1455    0.8973   -0.8800 H   0  0  0  0  0  0  0  0  0  0  0  0
    2.0985   -0.3418    0.0000 H   0  0  0  0  0  0  0  0  0  0  0  0
    0.0199   -1.2674    0.8800 H   0  0  0  0  0  0  0  0  0  0  0  0
    0.0199   -1.2674   -0.8800 H   0  0  0  0  0  0  0  0  0  0  0  0
  1  2  1  0
  2  3  1  0
  3  4  1  0
  1  5  1  0
  1  6  1  0
  1  7  1  0
  2  8  1  0
  2  9  1  0
M  END
