Ethylene
  MM2 example - C2H4 (sp2 carbons)
  
  6  5  0  0  0  0  0  0  0  0  1 V2000
    0.6660    0.0000    0.0000 C   0  0  0  0  0  0  0  0  0  0  0  0
   -0.6660    0.0000    0.0000 C   0  0  0  0  0  0  0  0  0  0  0  0
    1.2376    0.9267    0.0000 H   0  0  0  0  0  0  0  0  0  0  0  0
    1.2376   -0.9267    0.0000 H   0  0  0  0  0  0  0  0  0  0  0  0
   -1.2376    0.9267    0.0000 H   0  0  0  0  0  0  0  0  0  0  0  0
   -1.2376   -0.9267    0.0000 H   0  0  0  0  0  0  0  0  0  0  0  0
  1  2  2  0
  1  3  1  0
  1  4  1  0
  2  5  1  0
  2  6  1  0
M  END
