
 OpenBabel03252610323D

  6  5  0  0  0  0  0  0  0  0999 V2000
    0.9925   -0.0840   -0.0307 C   0  0  0  0  0  0  0  0  0  0  0  0
    0.3246    0.9260    0.5333 C   0  0  0  0  0  0  0  0  0  0  0  0
    0.4671   -0.9134   -0.4937 H   0  0  0  0  0  0  0  0  0  0  0  0
    2.0778   -0.1014   -0.0404 H   0  0  0  0  0  0  0  0  0  0  0  0
   -0.7607    0.9434    0.5430 H   0  0  0  0  0  0  0  0  0  0  0  0
    0.8500    1.7553    0.9964 H   0  0  0  0  0  0  0  0  0  0  0  0
  1  2  2  0  0  0  0
  1  3  1  0  0  0  0
  1  4  1  0  0  0  0
  2  5  1  0  0  0  0
  2  6  1  0  0  0  0
M  END
