
 OpenBabel04232608423D

 14 13  0  0  0  0  0  0  0  0999 V2000
   -3.9200    2.7989    0.0012 C   0  0  0  0  0  0  0  0  0  0  0  0
   -2.7352    3.7155   -0.0047 C   0  0  0  0  0  0  0  0  0  0  0  0
   -3.8172    2.0500   -0.7885 H   0  0  0  0  0  0  0  0  0  0  0  0
   -4.8266    3.3781   -0.1961 H   0  0  0  0  0  0  0  0  0  0  0  0
   -4.0085    2.3170    0.9777 H   0  0  0  0  0  0  0  0  0  0  0  0
   -1.5838    2.9897    0.0015 O   0  0  0  0  0  0  0  0  0  0  0  0
   -2.8060    4.9362    0.0066 O   0  0  0  0  0  0  0  0  0  0  0  0
   -0.3911    3.7834    0.0096 C   0  0  0  0  0  0  0  0  0  0  0  0
   -0.3710    4.4323   -0.8732 H   0  0  0  0  0  0  0  0  0  0  0  0
    0.8014    2.8474   -0.0169 C   0  0  0  0  0  0  0  0  0  0  0  0
   -0.3618    4.3948    0.9185 H   0  0  0  0  0  0  0  0  0  0  0  0
    0.7747    2.2145   -0.9101 H   0  0  0  0  0  0  0  0  0  0  0  0
    0.7850    2.1771    0.8489 H   0  0  0  0  0  0  0  0  0  0  0  0
    1.7392    3.4100   -0.0105 H   0  0  0  0  0  0  0  0  0  0  0  0
  1  2  1  0  0  0  0
  1  3  1  0  0  0  0
  1  4  1  0  0  0  0
  1  5  1  0  0  0  0
  2  6  1  0  0  0  0
  2  7  2  0  0  0  0
  6  8  1  0  0  0  0
  8  9  1  0  0  0  0
  8 10  1  0  0  0  0
  8 11  1  0  0  0  0
 10 12  1  0  0  0  0
 10 13  1  0  0  0  0
 10 14  1  0  0  0  0
M  END
