methylcyclohexane_equatorial
  Claude    3D
methylcyclohexane equatorial CH3. Ref MM2: 7.47 kcal/mol (Allinger 1977)
 21 21  0  0  0  0  0  0  0  0  0 V2000
    1.4425    0.0000    0.2520 C   0  0  0  0  0  0  0  0  0  0  0  0
    0.7213    1.2492   -0.2520 C   0  0  0  0  0  0  0  0  0  0  0  0
   -0.7212    1.2492    0.2520 C   0  0  0  0  0  0  0  0  0  0  0  0
   -1.4425    0.0000   -0.2520 C   0  0  0  0  0  0  0  0  0  0  0  0
   -0.7213   -1.2492    0.2520 C   0  0  0  0  0  0  0  0  0  0  0  0
    0.7213   -1.2492   -0.2520 C   0  0  0  0  0  0  0  0  0  0  0  0
    1.9690   -0.9089    0.6199 H   0  0  0  0  0  0  0  0  0  0  0  0
    2.1630    1.2437    0.7555 C   0  0  0  0  0  0  0  0  0  0  0  0
    2.8955    0.4148    0.6328 H   0  0  0  0  0  0  0  0  0  0  0  0
    1.6841    1.4637   -0.2248 H   0  0  0  0  0  0  0  0  0  0  0  0
    1.3829    0.9438    1.4905 H   0  0  0  0  0  0  0  0  0  0  0  0
    1.7717    1.2508   -0.6199 H   0  0  0  0  0  0  0  0  0  0  0  0
    0.1974    2.1597   -0.6199 H   0  0  0  0  0  0  0  0  0  0  0  0
   -0.1974    2.1597    0.6199 H   0  0  0  0  0  0  0  0  0  0  0  0
   -1.7717    1.2508    0.6199 H   0  0  0  0  0  0  0  0  0  0  0  0
   -1.9690    0.9089   -0.6199 H   0  0  0  0  0  0  0  0  0  0  0  0
   -1.9690   -0.9089   -0.6199 H   0  0  0  0  0  0  0  0  0  0  0  0
   -1.7717   -1.2508    0.6199 H   0  0  0  0  0  0  0  0  0  0  0  0
   -0.1974   -2.1597    0.6199 H   0  0  0  0  0  0  0  0  0  0  0  0
    0.1974   -2.1597   -0.6199 H   0  0  0  0  0  0  0  0  0  0  0  0
    1.7717   -1.2508   -0.6199 H   0  0  0  0  0  0  0  0  0  0  0  0
  1  2  1  0  0  0  0
  2  3  1  0  0  0  0
  3  4  1  0  0  0  0
  4  5  1  0  0  0  0
  5  6  1  0  0  0  0
  6  1  1  0  0  0  0
  1  7  1  0  0  0  0
  1  8  1  0  0  0  0
  8  9  1  0  0  0  0
  8 10  1  0  0  0  0
  8 11  1  0  0  0  0
  2 12  1  0  0  0  0
  2 13  1  0  0  0  0
  3 14  1  0  0  0  0
  3 15  1  0  0  0  0
  4 16  1  0  0  0  0
  4 17  1  0  0  0  0
  5 18  1  0  0  0  0
  5 19  1  0  0  0  0
  6 20  1  0  0  0  0
  6 21  1  0  0  0  0
M  END
