
 OpenBabel03252610343D

 21 21  0  0  0  0  0  0  0  0999 V2000
    1.4592    0.2533   -0.2387 C   0  0  0  0  0  0  0  0  0  0  0  0
    0.4697    1.3202   -0.7300 C   0  0  0  0  0  0  0  0  0  0  0  0
   -0.8788    1.2612   -0.0145 C   0  0  0  0  0  0  0  0  0  0  0  0
   -1.4902   -0.1348   -0.0797 C   0  0  0  0  0  0  0  0  0  0  0  0
   -0.5306   -1.2002    0.4410 C   0  0  0  0  0  0  0  0  0  0  0  0
    0.8187   -1.1421   -0.2734 C   0  0  0  0  0  0  0  0  0  0  0  0
    2.3158    0.2475   -0.9254 H   0  0  0  0  0  0  0  0  0  0  0  0
    2.0080    0.5887    1.1509 C   0  0  0  0  0  0  0  0  0  0  0  0
    2.7508   -0.1544    1.4600 H   0  0  0  0  0  0  0  0  0  0  0  0
    2.5014    1.5666    1.1433 H   0  0  0  0  0  0  0  0  0  0  0  0
    1.2250    0.6157    1.9141 H   0  0  0  0  0  0  0  0  0  0  0  0
    0.3016    1.1745   -1.8050 H   0  0  0  0  0  0  0  0  0  0  0  0
    0.9027    2.3211   -0.6167 H   0  0  0  0  0  0  0  0  0  0  0  0
   -0.7598    1.5619    1.0330 H   0  0  0  0  0  0  0  0  0  0  0  0
   -1.5661    1.9826   -0.4713 H   0  0  0  0  0  0  0  0  0  0  0  0
   -1.7592   -0.3650   -1.1181 H   0  0  0  0  0  0  0  0  0  0  0  0
   -2.4187   -0.1586    0.5018 H   0  0  0  0  0  0  0  0  0  0  0  0
   -0.9753   -2.1922    0.3006 H   0  0  0  0  0  0  0  0  0  0  0  0
   -0.3881   -1.0708    1.5201 H   0  0  0  0  0  0  0  0  0  0  0  0
    0.6721   -1.4350   -1.3213 H   0  0  0  0  0  0  0  0  0  0  0  0
    1.4983   -1.8833    0.1635 H   0  0  0  0  0  0  0  0  0  0  0  0
  1  2  1  0  0  0  0
  1  7  1  0  0  0  0
  1  8  1  0  0  0  0
  2  3  1  0  0  0  0
  2 12  1  0  0  0  0
  2 13  1  0  0  0  0
  3  4  1  0  0  0  0
  3 14  1  0  0  0  0
  3 15  1  0  0  0  0
  4  5  1  0  0  0  0
  4 16  1  0  0  0  0
  4 17  1  0  0  0  0
  5  6  1  0  0  0  0
  5 18  1  0  0  0  0
  5 19  1  0  0  0  0
  6  1  1  0  0  0  0
  6 20  1  0  0  0  0
  6 21  1  0  0  0  0
  8  9  1  0  0  0  0
  8 10  1  0  0  0  0
  8 11  1  0  0  0  0
M  END
