methylcyclohexane_equatorial
  MM2-benchmark
  Ref MM2 steric energy: 7.47 kcal/mol (Allinger 1977; axial=9.27, A-value=1.80 kcal/mol)

 21 21  0  0  0  0  0  0  0  0  0 V2000
     1.4425     0.0000     0.2520 C   0  0  0  0  0  0  0  0  0  0  0  0
     0.7213     1.2492    -0.2520 C   0  0  0  0  0  0  0  0  0  0  0  0
    -0.7212     1.2492     0.2520 C   0  0  0  0  0  0  0  0  0  0  0  0
    -1.4425     0.0000    -0.2520 C   0  0  0  0  0  0  0  0  0  0  0  0
    -0.7213    -1.2492     0.2520 C   0  0  0  0  0  0  0  0  0  0  0  0
     0.7213    -1.2492    -0.2520 C   0  0  0  0  0  0  0  0  0  0  0  0
     1.9690    -0.9089     0.6199 H   0  0  0  0  0  0  0  0  0  0  0  0
     2.1630     1.2437     0.7555 C   0  0  0  0  0  0  0  0  0  0  0  0
     1.9875     0.5470     1.6055 H   0  0  0  0  0  0  0  0  0  0  0  0
     2.7881     0.7391    -0.0148 H   0  0  0  0  0  0  0  0  0  0  0  0
     1.1869     1.5362     0.3078 H   0  0  0  0  0  0  0  0  0  0  0  0
     0.9845     2.2760     0.0874 H   0  0  0  0  0  0  0  0  0  0  0  0
     0.9845     1.1345    -1.3273 H   0  0  0  0  0  0  0  0  0  0  0  0
    -0.9845     1.1345     1.3273 H   0  0  0  0  0  0  0  0  0  0  0  0
    -0.9845     2.2760    -0.0874 H   0  0  0  0  0  0  0  0  0  0  0  0
    -1.9690     0.9089    -0.6199 H   0  0  0  0  0  0  0  0  0  0  0  0
    -1.9690    -0.9089    -0.6199 H   0  0  0  0  0  0  0  0  0  0  0  0
    -0.9845    -2.2760    -0.0874 H   0  0  0  0  0  0  0  0  0  0  0  0
    -0.9845    -1.1345     1.3273 H   0  0  0  0  0  0  0  0  0  0  0  0
     0.9845    -1.1345    -1.3273 H   0  0  0  0  0  0  0  0  0  0  0  0
     0.9845    -2.2760     0.0874 H   0  0  0  0  0  0  0  0  0  0  0  0
   1   2  1  0
   2   3  1  0
   3   4  1  0
   4   5  1  0
   5   6  1  0
   6   1  1  0
   1   7  1  0
   1   8  1  0
   8   9  1  0
   8  10  1  0
   8  11  1  0
   2  12  1  0
   2  13  1  0
   3  14  1  0
   3  15  1  0
   4  16  1  0
   4  17  1  0
   5  18  1  0
   5  19  1  0
   6  20  1  0
   6  21  1  0
M  END
$$$$
