Methane
  MM2 example - CH4
  
  5  4  0  0  0  0  0  0  0  0  1 V2000
    0.0000    0.0000    0.0000 C   0  0  0  0  0  0  0  0  0  0  0  0
    0.6268    0.6268    0.6268 H   0  0  0  0  0  0  0  0  0  0  0  0
   -0.6268   -0.6268    0.6268 H   0  0  0  0  0  0  0  0  0  0  0  0
   -0.6268    0.6268   -0.6268 H   0  0  0  0  0  0  0  0  0  0  0  0
    0.6268   -0.6268   -0.6268 H   0  0  0  0  0  0  0  0  0  0  0  0
  1  2  1  0
  1  3  1  0
  1  4  1  0
  1  5  1  0
M  END
