
 OpenBabel03112622523D

 17 16  0  0  0  0  0  0  0  0999 V2000
    0.0000    0.0000   -0.0000 C   0  0  0  0  0  0  0  0  0  0  0  0
    0.7939    0.9702    0.8864 C   0  0  0  0  0  0  0  0  0  0  0  0
   -0.7939   -0.9702    0.8864 C   0  0  0  0  0  0  0  0  0  0  0  0
   -0.9702    0.7939   -0.8864 C   0  0  0  0  0  0  0  0  0  0  0  0
    0.9702   -0.7939   -0.8864 C   0  0  0  0  0  0  0  0  0  0  0  0
    1.5009    0.4321    1.5279 H   0  0  0  0  0  0  0  0  0  0  0  0
    1.3678    1.6806    0.2808 H   0  0  0  0  0  0  0  0  0  0  0  0
    0.1275    1.5483    1.5364 H   0  0  0  0  0  0  0  0  0  0  0  0
   -1.5009   -0.4321    1.5279 H   0  0  0  0  0  0  0  0  0  0  0  0
   -1.3678   -1.6806    0.2808 H   0  0  0  0  0  0  0  0  0  0  0  0
   -0.1275   -1.5483    1.5364 H   0  0  0  0  0  0  0  0  0  0  0  0
   -0.4321    1.5009   -1.5279 H   0  0  0  0  0  0  0  0  0  0  0  0
   -1.5483    0.1275   -1.5364 H   0  0  0  0  0  0  0  0  0  0  0  0
   -1.6806    1.3678   -0.2808 H   0  0  0  0  0  0  0  0  0  0  0  0
    0.4321   -1.5009   -1.5279 H   0  0  0  0  0  0  0  0  0  0  0  0
    1.5483   -0.1275   -1.5364 H   0  0  0  0  0  0  0  0  0  0  0  0
    1.6806   -1.3678   -0.2808 H   0  0  0  0  0  0  0  0  0  0  0  0
  1  2  1  0  0  0  0
  1  3  1  0  0  0  0
  1  4  1  0  0  0  0
  1  5  1  0  0  0  0
  2  6  1  0  0  0  0
  2  7  1  0  0  0  0
  2  8  1  0  0  0  0
  3  9  1  0  0  0  0
  3 10  1  0  0  0  0
  3 11  1  0  0  0  0
  4 12  1  0  0  0  0
  4 13  1  0  0  0  0
  4 14  1  0  0  0  0
  5 15  1  0  0  0  0
  5 16  1  0  0  0  0
  5 17  1  0  0  0  0
M  END
