neopentane
  Claude    3D
2,2-dimethylpropane (Td). Ref MM2: 5.21 kcal/mol (Allinger 1977)
 17 16  0  0  0  0  0  0  0  0  0 V2000
    0.0000    0.0000    0.0000 C   0  0  0  0  0  0  0  0  0  0  0  0
    0.8793    0.8793    0.8793 C   0  0  0  0  0  0  0  0  0  0  0  0
   -0.8793   -0.8793    0.8793 C   0  0  0  0  0  0  0  0  0  0  0  0
   -0.8793    0.8793   -0.8793 C   0  0  0  0  0  0  0  0  0  0  0  0
    0.8793   -0.8793   -0.8793 C   0  0  0  0  0  0  0  0  0  0  0  0
    1.4071   -0.0769    0.6651 H   0  0  0  0  0  0  0  0  0  0  0  0
    0.6651    1.4071   -0.0769 H   0  0  0  0  0  0  0  0  0  0  0  0
   -0.0769    0.6651    1.4071 H   0  0  0  0  0  0  0  0  0  0  0  0
   -1.4071    0.0769    0.6651 H   0  0  0  0  0  0  0  0  0  0  0  0
   -0.6651   -1.4071   -0.0769 H   0  0  0  0  0  0  0  0  0  0  0  0
    0.0769   -0.6651    1.4071 H   0  0  0  0  0  0  0  0  0  0  0  0
    0.0769    1.4071   -0.6651 H   0  0  0  0  0  0  0  0  0  0  0  0
   -0.6651   -0.0769   -1.4071 H   0  0  0  0  0  0  0  0  0  0  0  0
   -1.4071    0.6651    0.0769 H   0  0  0  0  0  0  0  0  0  0  0  0
   -0.0769   -1.4071   -0.6651 H   0  0  0  0  0  0  0  0  0  0  0  0
    0.6651    0.0769   -1.4071 H   0  0  0  0  0  0  0  0  0  0  0  0
    1.4071   -0.6651    0.0769 H   0  0  0  0  0  0  0  0  0  0  0  0
  1  2  1  0  0  0  0
  1  3  1  0  0  0  0
  1  4  1  0  0  0  0
  1  5  1  0  0  0  0
  2  6  1  0  0  0  0
  2  7  1  0  0  0  0
  2  8  1  0  0  0  0
  3  9  1  0  0  0  0
  3 10  1  0  0  0  0
  3 11  1  0  0  0  0
  4 12  1  0  0  0  0
  4 13  1  0  0  0  0
  4 14  1  0  0  0  0
  5 15  1  0  0  0  0
  5 16  1  0  0  0  0
  5 17  1  0  0  0  0
M  END
