
 OpenBabel03252610363D

 17 16  0  0  0  0  0  0  0  0999 V2000
   -0.0000    0.0000    0.0000 C   0  0  0  0  0  0  0  0  0  0  0  0
    0.7930    0.9709    0.8864 C   0  0  0  0  0  0  0  0  0  0  0  0
   -0.7930   -0.9709    0.8864 C   0  0  0  0  0  0  0  0  0  0  0  0
   -0.9709    0.7930   -0.8864 C   0  0  0  0  0  0  0  0  0  0  0  0
    0.9709   -0.7930   -0.8864 C   0  0  0  0  0  0  0  0  0  0  0  0
    1.4963    0.4331    1.5322 H   0  0  0  0  0  0  0  0  0  0  0  0
    1.3707    1.6782    0.2808 H   0  0  0  0  0  0  0  0  0  0  0  0
    0.1256    1.5526    1.5322 H   0  0  0  0  0  0  0  0  0  0  0  0
   -1.4963   -0.4331    1.5322 H   0  0  0  0  0  0  0  0  0  0  0  0
   -1.3707   -1.6782    0.2808 H   0  0  0  0  0  0  0  0  0  0  0  0
   -0.1256   -1.5526    1.5322 H   0  0  0  0  0  0  0  0  0  0  0  0
   -0.4331    1.4963   -1.5322 H   0  0  0  0  0  0  0  0  0  0  0  0
   -1.5526    0.1256   -1.5322 H   0  0  0  0  0  0  0  0  0  0  0  0
   -1.6782    1.3707   -0.2808 H   0  0  0  0  0  0  0  0  0  0  0  0
    0.4331   -1.4963   -1.5322 H   0  0  0  0  0  0  0  0  0  0  0  0
    1.5526   -0.1256   -1.5322 H   0  0  0  0  0  0  0  0  0  0  0  0
    1.6782   -1.3707   -0.2808 H   0  0  0  0  0  0  0  0  0  0  0  0
  1  2  1  0  0  0  0
  1  3  1  0  0  0  0
  1  4  1  0  0  0  0
  1  5  1  0  0  0  0
  2  6  1  0  0  0  0
  2  7  1  0  0  0  0
  2  8  1  0  0  0  0
  3  9  1  0  0  0  0
  3 10  1  0  0  0  0
  3 11  1  0  0  0  0
  4 12  1  0  0  0  0
  4 13  1  0  0  0  0
  4 14  1  0  0  0  0
  5 15  1  0  0  0  0
  5 16  1  0  0  0  0
  5 17  1  0  0  0  0
M  END
