
 OpenBabel03252610363D

 11 10  0  0  0  0  0  0  0  0999 V2000
   -1.2760    0.2308    0.0000 C   0  0  0  0  0  0  0  0  0  0  0  0
   -0.0000    1.0625    0.0000 C   0  0  0  0  0  0  0  0  0  0  0  0
    1.2760    0.2308    0.0000 C   0  0  0  0  0  0  0  0  0  0  0  0
   -1.8818    0.4660    0.8815 H   0  0  0  0  0  0  0  0  0  0  0  0
   -1.8818    0.4660   -0.8815 H   0  0  0  0  0  0  0  0  0  0  0  0
   -1.0888   -0.8467   -0.0000 H   0  0  0  0  0  0  0  0  0  0  0  0
   -0.0000    1.7211    0.8768 H   0  0  0  0  0  0  0  0  0  0  0  0
   -0.0000    1.7211   -0.8768 H   0  0  0  0  0  0  0  0  0  0  0  0
    1.8818    0.4660    0.8815 H   0  0  0  0  0  0  0  0  0  0  0  0
    1.8818    0.4660   -0.8815 H   0  0  0  0  0  0  0  0  0  0  0  0
    1.0888   -0.8467   -0.0000 H   0  0  0  0  0  0  0  0  0  0  0  0
  1  2  1  0  0  0  0
  1  4  1  0  0  0  0
  1  5  1  0  0  0  0
  1  6  1  0  0  0  0
  2  3  1  0  0  0  0
  2  7  1  0  0  0  0
  2  8  1  0  0  0  0
  3  9  1  0  0  0  0
  3 10  1  0  0  0  0
  3 11  1  0  0  0  0
M  END
