Propane
  MM2 example - C3H8
  
 11 10  0  0  0  0  0  0  0  0  1 V2000
   -1.2680    0.0000    0.0000 C   0  0  0  0  0  0  0  0  0  0  0  0
    0.0000    0.8170    0.0000 C   0  0  0  0  0  0  0  0  0  0  0  0
    1.2680    0.0000    0.0000 C   0  0  0  0  0  0  0  0  0  0  0  0
   -1.2600    0.6530    0.8800 H   0  0  0  0  0  0  0  0  0  0  0  0
   -1.2600    0.6530   -0.8800 H   0  0  0  0  0  0  0  0  0  0  0  0
   -2.1580   -0.6180    0.0000 H   0  0  0  0  0  0  0  0  0  0  0  0
    0.0000    1.4720    0.8800 H   0  0  0  0  0  0  0  0  0  0  0  0
    0.0000    1.4720   -0.8800 H   0  0  0  0  0  0  0  0  0  0  0  0
    1.2600    0.6530    0.8800 H   0  0  0  0  0  0  0  0  0  0  0  0
    1.2600    0.6530   -0.8800 H   0  0  0  0  0  0  0  0  0  0  0  0
    2.1580   -0.6180    0.0000 H   0  0  0  0  0  0  0  0  0  0  0  0
  1  2  1  0
  2  3  1  0
  1  4  1  0
  1  5  1  0
  1  6  1  0
  2  7  1  0
  2  8  1  0
  3  9  1  0
  3 10  1  0
  3 11  1  0
M  END
