trans_decalin
  MM2-benchmark
  Ref MM2 steric energy: 11.60 kcal/mol (Allinger 1977 Table X; most stable decalin isomer)

 28 29  0  0  0  0  0  0  0  0  0 V2000
     1.4425     0.0000     0.2520 C   0  0  0  0  0  0  0  0  0  0  0  0
     0.7213     1.2492    -0.2520 C   0  0  0  0  0  0  0  0  0  0  0  0
    -0.7212     1.2492     0.2520 C   0  0  0  0  0  0  0  0  0  0  0  0
    -1.4425     0.0000    -0.2520 C   0  0  0  0  0  0  0  0  0  0  0  0
    -0.7213    -1.2492     0.2520 C   0  0  0  0  0  0  0  0  0  0  0  0
     0.7213    -1.2492    -0.2520 C   0  0  0  0  0  0  0  0  0  0  0  0
    -2.8850    -2.4985    -0.2520 C   0  0  0  0  0  0  0  0  0  0  0  0
    -3.6063    -1.2492     0.2520 C   0  0  0  0  0  0  0  0  0  0  0  0
    -2.6496    -0.4077     1.0955 C   0  0  0  0  0  0  0  0  0  0  0  0
    -1.6779    -2.0908    -1.0955 C   0  0  0  0  0  0  0  0  0  0  0  0
     1.9690    -0.9089     0.6199 H   0  0  0  0  0  0  0  0  0  0  0  0
     1.9690     0.9089     0.6199 H   0  0  0  0  0  0  0  0  0  0  0  0
     0.9845     2.2760     0.0874 H   0  0  0  0  0  0  0  0  0  0  0  0
     0.9845     1.1345    -1.3273 H   0  0  0  0  0  0  0  0  0  0  0  0
    -0.9845     1.1345     1.3273 H   0  0  0  0  0  0  0  0  0  0  0  0
    -0.9845     2.2760    -0.0874 H   0  0  0  0  0  0  0  0  0  0  0  0
    -1.8628     0.8198    -0.8765 H   0  0  0  0  0  0  0  0  0  0  0  0
    -0.6872    -1.5316     1.3280 H   0  0  0  0  0  0  0  0  0  0  0  0
     0.9845    -1.1345    -1.3273 H   0  0  0  0  0  0  0  0  0  0  0  0
     0.9845    -2.2760     0.0874 H   0  0  0  0  0  0  0  0  0  0  0  0
    -2.8955    -2.9540    -1.2674 H   0  0  0  0  0  0  0  0  0  0  0  0
    -2.8955    -3.3035     0.5165 H   0  0  0  0  0  0  0  0  0  0  0  0
    -4.3990    -1.1004     1.0189 H   0  0  0  0  0  0  0  0  0  0  0  0
    -4.0385    -1.1004    -0.7628 H   0  0  0  0  0  0  0  0  0  0  0  0
    -2.5412    -0.6806     2.1691 H   0  0  0  0  0  0  0  0  0  0  0  0
    -2.5412     0.6939     0.9794 H   0  0  0  0  0  0  0  0  0  0  0  0
    -1.7433    -1.7107    -2.1396 H   0  0  0  0  0  0  0  0  0  0  0  0
    -1.7433    -3.2018    -1.0997 H   0  0  0  0  0  0  0  0  0  0  0  0
   1   2  1  0
   2   3  1  0
   3   4  1  0
   4   5  1  0
   5   6  1  0
   6   1  1  0
   4   7  1  0
   7   8  1  0
   8   9  1  0
   9  10  1  0
  10   5  1  0
   1  11  1  0
   1  12  1  0
   2  13  1  0
   2  14  1  0
   3  15  1  0
   3  16  1  0
   4  17  1  0
   5  18  1  0
   6  19  1  0
   6  20  1  0
   7  21  1  0
   7  22  1  0
   8  23  1  0
   8  24  1  0
   9  25  1  0
   9  26  1  0
  10  27  1  0
  10  28  1  0
M  END
$$$$
