
 OpenBabel03252610363D

 28 29  0  0  0  0  0  0  0  0999 V2000
    1.3539    0.3313    0.0094 C   0  0  0  0  0  0  0  0  0  0  0  0
    0.4691    1.3885   -0.6673 C   0  0  0  0  0  0  0  0  0  0  0  0
   -1.0377    1.2032   -0.4304 C   0  0  0  0  0  0  0  0  0  0  0  0
   -1.4403   -0.2520   -0.6931 C   0  0  1  0  0  0  0  0  0  0  0  0
   -0.6477   -1.1306    0.2895 C   0  0  2  0  0  0  0  0  0  0  0  0
    0.8226   -1.1014   -0.1249 C   0  0  0  0  0  0  0  0  0  0  0  0
   -2.9520   -0.5197   -0.6630 C   0  0  0  0  0  0  0  0  0  0  0  0
   -3.4467   -1.1584    0.6300 C   0  0  0  0  0  0  0  0  0  0  0  0
   -2.6376   -2.3865    1.0713 C   0  0  0  0  0  0  0  0  0  0  0  0
   -1.2703   -2.5147    0.3902 C   0  0  0  0  0  0  0  0  0  0  0  0
    1.4347    0.5732    1.0772 H   0  0  0  0  0  0  0  0  0  0  0  0
    2.3689    0.3870   -0.3999 H   0  0  0  0  0  0  0  0  0  0  0  0
    0.6564    1.3586   -1.7482 H   0  0  0  0  0  0  0  0  0  0  0  0
    0.7711    2.3855   -0.3261 H   0  0  0  0  0  0  0  0  0  0  0  0
   -1.5925    1.8824   -1.0868 H   0  0  0  0  0  0  0  0  0  0  0  0
   -1.2871    1.4832    0.6016 H   0  0  0  0  0  0  0  0  0  0  0  0
   -1.1239   -0.4850   -1.7218 H   0  0  0  0  0  0  0  0  0  0  0  0
   -0.7026   -0.6908    1.2979 H   0  0  0  0  0  0  0  0  0  0  0  0
    1.4167   -1.7730    0.5043 H   0  0  0  0  0  0  0  0  0  0  0  0
    0.9383   -1.4472   -1.1606 H   0  0  0  0  0  0  0  0  0  0  0  0
   -3.5179    0.3937   -0.8783 H   0  0  0  0  0  0  0  0  0  0  0  0
   -3.1867   -1.2146   -1.4817 H   0  0  0  0  0  0  0  0  0  0  0  0
   -3.4239   -0.4043    1.4259 H   0  0  0  0  0  0  0  0  0  0  0  0
   -4.4992   -1.4457    0.5144 H   0  0  0  0  0  0  0  0  0  0  0  0
   -3.2147   -3.3032    0.9095 H   0  0  0  0  0  0  0  0  0  0  0  0
   -2.4875   -2.3138    2.1575 H   0  0  0  0  0  0  0  0  0  0  0  0
   -1.3862   -2.9605   -0.6055 H   0  0  0  0  0  0  0  0  0  0  0  0
   -0.6362   -3.1907    0.9744 H   0  0  0  0  0  0  0  0  0  0  0  0
  1  2  1  0  0  0  0
  1 11  1  0  0  0  0
  1 12  1  0  0  0  0
  2  3  1  0  0  0  0
  2 13  1  0  0  0  0
  2 14  1  0  0  0  0
  3  4  1  0  0  0  0
  3 15  1  0  0  0  0
  3 16  1  0  0  0  0
  4  5  1  1  0  0  0
  4  7  1  0  0  0  0
  4 17  1  0  0  0  0
  5  6  1  0  0  0  0
  5 18  1  1  0  0  0
  6  1  1  0  0  0  0
  6 19  1  0  0  0  0
  6 20  1  0  0  0  0
  7  8  1  0  0  0  0
  7 21  1  0  0  0  0
  7 22  1  0  0  0  0
  8  9  1  0  0  0  0
  8 23  1  0  0  0  0
  8 24  1  0  0  0  0
  9 10  1  0  0  0  0
  9 25  1  0  0  0  0
  9 26  1  0  0  0  0
 10  5  1  0  0  0  0
 10 27  1  0  0  0  0
 10 28  1  0  0  0  0
M  END
