trans_decalin
  Claude    3D
trans-decalin (trans junction). Ref MM2: 11.60 kcal/mol (Allinger 1977)
 28 29  0  0  0  0  0  0  0  0  0 V2000
    1.4425    0.0000    0.2520 C   0  0  0  0  0  0  0  0  0  0  0  0
    0.7213    1.2492   -0.2520 C   0  0  0  0  0  0  0  0  0  0  0  0
   -0.7212    1.2492    0.2520 C   0  0  0  0  0  0  0  0  0  0  0  0
   -1.4425    0.0000   -0.2520 C   0  0  0  0  0  0  0  0  0  0  0  0
   -0.7213   -1.2492    0.2520 C   0  0  0  0  0  0  0  0  0  0  0  0
    0.7213   -1.2492   -0.2520 C   0  0  0  0  0  0  0  0  0  0  0  0
   -2.8850   -2.4985   -0.2520 C   0  0  0  0  0  0  0  0  0  0  0  0
   -3.6063   -1.2492    0.2520 C   0  0  0  0  0  0  0  0  0  0  0  0
   -2.6496   -0.4077    1.0955 C   0  0  0  0  0  0  0  0  0  0  0  0
   -1.6779   -2.0908   -1.0955 C   0  0  0  0  0  0  0  0  0  0  0  0
    1.9690   -0.9089    0.6199 H   0  0  0  0  0  0  0  0  0  0  0  0
    1.9690    0.9089    0.6199 H   0  0  0  0  0  0  0  0  0  0  0  0
    1.7717    1.2508   -0.6199 H   0  0  0  0  0  0  0  0  0  0  0  0
    0.1974    2.1597   -0.6199 H   0  0  0  0  0  0  0  0  0  0  0  0
   -0.1974    2.1597    0.6199 H   0  0  0  0  0  0  0  0  0  0  0  0
   -1.7717    1.2508    0.6199 H   0  0  0  0  0  0  0  0  0  0  0  0
   -1.8628    0.8198   -0.8765 H   0  0  0  0  0  0  0  0  0  0  0  0
   -0.6872   -1.5316    1.3280 H   0  0  0  0  0  0  0  0  0  0  0  0
    0.1974   -2.1597   -0.6199 H   0  0  0  0  0  0  0  0  0  0  0  0
    1.7717   -1.2508   -0.6199 H   0  0  0  0  0  0  0  0  0  0  0  0
   -3.8043   -3.1137   -0.3755 H   0  0  0  0  0  0  0  0  0  0  0  0
   -1.9867   -3.1439   -0.3755 H   0  0  0  0  0  0  0  0  0  0  0  0
   -4.0041   -0.2172    0.1281 H   0  0  0  0  0  0  0  0  0  0  0  0
   -4.4333   -1.9836    0.1281 H   0  0  0  0  0  0  0  0  0  0  0  0
   -1.6619   -0.2233    1.5742 H   0  0  0  0  0  0  0  0  0  0  0  0
   -3.4206    0.2366    1.5742 H   0  0  0  0  0  0  0  0  0  0  0  0
   -2.6380   -2.2961   -1.6197 H   0  0  0  0  0  0  0  0  0  0  0  0
   -0.8486   -2.6164   -1.6197 H   0  0  0  0  0  0  0  0  0  0  0  0
  1  2  1  0  0  0  0
  2  3  1  0  0  0  0
  3  4  1  0  0  0  0
  4  5  1  0  0  0  0
  5  6  1  0  0  0  0
  6  1  1  0  0  0  0
  4  7  1  0  0  0  0
  7  8  1  0  0  0  0
  8  9  1  0  0  0  0
  9 10  1  0  0  0  0
 10  5  1  0  0  0  0
  1 11  1  0  0  0  0
  1 12  1  0  0  0  0
  2 13  1  0  0  0  0
  2 14  1  0  0  0  0
  3 15  1  0  0  0  0
  3 16  1  0  0  0  0
  4 17  1  0  0  0  0
  5 18  1  0  0  0  0
  6 19  1  0  0  0  0
  6 20  1  0  0  0  0
  7 21  1  0  0  0  0
  7 22  1  0  0  0  0
  8 23  1  0  0  0  0
  8 24  1  0  0  0  0
  9 25  1  0  0  0  0
  9 26  1  0  0  0  0
 10 27  1  0  0  0  0
 10 28  1  0  0  0  0
M  END
